data/open_dss/uhs13_1247/uhs13_1247--udt4015/Loads_original.dss
New Load.load_p1ulv292 conn=wye bus1=p1ulv292.1.2 kV=0.2080002494301389 Vminpu=0.8 Vmaxpu=1.2 model=1 kW=2.93003 kvar=0.5995517424405946 Phases=2

New Load.load_p1ulv293 conn=wye bus1=p1ulv292.1.2 kV=0.2080002494301389 Vminpu=0.8 Vmaxpu=1.2 model=1 kW=3.0100300000000004 kvar=0.6096359018765115 Phases=2

New Load.load_p1ulv294 conn=wye bus1=p1ulv294.1.2 kV=0.2080002494301389 Vminpu=0.8 Vmaxpu=1.2 model=1 kW=2.97003 kvar=0.5999751474699353 Phases=2

New Load.load_p1ulv295 conn=wye bus1=p1ulv295.1.2 kV=0.2080002494301389 Vminpu=0.8 Vmaxpu=1.2 model=1 kW=3.15003 kvar=0.6396408727569326 Phases=2

New Load.load_p1ulv296 conn=wye bus1=p1ulv295.1.2 kV=0.2080002494301389 Vminpu=0.8 Vmaxpu=1.2 model=1 kW=3.36003 kvar=0.6805230909267135 Phases=2

New Load.load_p1ulv297 conn=wye bus1=p1ulv297.1.2 kV=0.2080002494301389 Vminpu=0.8 Vmaxpu=1.2 model=1 kW=2.5300300000000004 kvar=0.5097594376956769 Phases=2

New Load.load_p1ulv298 conn=wye bus1=p1ulv297.1.2 kV=0.2080002494301389 Vminpu=0.8 Vmaxpu=1.2 model=1 kW=2.38002 kvar=0.47953488966710467 Phases=2

New Load.load_p1ulv299 conn=wye bus1=p1ulv299.1.2 kV=0.2080002494301389 Vminpu=0.8 Vmaxpu=1.2 model=1 kW=2.8200300000000005 kvar=0.5696736784206362 Phases=2

New Load.load_p1ulv300 conn=wye bus1=p1ulv300.1.2 kV=0.2080002494301389 Vminpu=0.8 Vmaxpu=1.2 model=1 kW=2.7600300000000004 kvar=0.5604479951096709 Phases=2

New Load.load_p1ulv301 conn=wye bus1=p1ulv301.1.2 kV=0.2080002494301389 Vminpu=0.8 Vmaxpu=1.2 model=1 kW=2.92003 kvar=0.5898746577868357 Phases=2

New Load.load_p1ulv302 conn=wye bus1=p1ulv302.1.2 kV=0.2080002494301389 Vminpu=0.8 Vmaxpu=1.2 model=1 kW=2.99003 kvar=0.6102734204701886 Phases=2

New Load.load_p1ulv303 conn=wye bus1=p1ulv303.1.2 kV=0.2080002494301389 Vminpu=0.8 Vmaxpu=1.2 model=1 kW=1.77002 kvar=0.36034298554586675 Phases=2

New Load.load_p1ulv304 conn=wye bus1=p1ulv304.1.2 kV=0.2080002494301389 Vminpu=0.8 Vmaxpu=1.2 model=1 kW=2.58003 kvar=0.5198336154266855 Phases=2

New Load.load_p1ulv305 conn=wye bus1=p1ulv305.1.2 kV=0.2080002494301389 Vminpu=0.8 Vmaxpu=1.2 model=1 kW=2.81003 kvar=0.570600928141371 Phases=2

New Load.load_p1ulv306 conn=wye bus1=p1ulv306.1.2 kV=0.2080002494301389 Vminpu=0.8 Vmaxpu=1.2 model=1 kW=8.26008 kvar=1.681597884796614 Phases=2

New Load.load_p1ulv307 conn=wye bus1=p1ulv307.1.2 kV=0.2080002494301389 Vminpu=0.8 Vmaxpu=1.2 model=1 kW=5.090050000000001 kvar=1.0309123903570856 Phases=2

New Load.load_p1ulv308 conn=wye bus1=p1ulv308.1.2 kV=0.2080002494301389 Vminpu=0.8 Vmaxpu=1.2 model=1 kW=2.72003 kvar=0.5494726990544365 Phases=2

New Load.load_p1ulv309 conn=wye bus1=p1ulv309.1.2 kV=0.2080002494301389 Vminpu=0.8 Vmaxpu=1.2 model=1 kW=2.89003 kvar=0.5898631429656088 Phases=2

New Load.load_p1ulv310 conn=wye bus1=p1ulv310.1.2 kV=0.2080002494301389 Vminpu=0.8 Vmaxpu=1.2 model=1 kW=2.94003 kvar=0.6000682817178988 Phases=2

New Load.load_p1ulv311 conn=wye bus1=p1ulv311.1.2 kV=0.2080002494301389 Vminpu=0.8 Vmaxpu=1.2 model=1 kW=3.53004 kvar=0.7204909600226704 Phases=2

New Load.load_p1ulv312 conn=wye bus1=p1ulv312.1.2 kV=0.2080002494301389 Vminpu=0.8 Vmaxpu=1.2 model=1 kW=3.53004 kvar=0.7204909600226704 Phases=2

New Load.load_p1ulv313 conn=wye bus1=p1ulv313.1.2 kV=0.2080002494301389 Vminpu=0.8 Vmaxpu=1.2 model=1 kW=2.52003 kvar=0.510393837206229 Phases=2

New Load.load_p1ulv314 conn=wye bus1=p1ulv313.1.2 kV=0.2080002494301389 Vminpu=0.8 Vmaxpu=1.2 model=1 kW=3.2600300000000004 kvar=0.6602696083409414 Phases=2

New Load.load_p1ulv315 conn=wye bus1=p1ulv315.1.2 kV=0.2080002494301389 Vminpu=0.8 Vmaxpu=1.2 model=1 kW=2.23002 kvar=0.45048588006212237 Phases=2

New Load.load_p1ulv316 conn=wye bus1=p1ulv316.1.2 kV=0.2080002494301389 Vminpu=0.8 Vmaxpu=1.2 model=1 kW=2.46002 kvar=0.49952836633286324 Phases=2

New Load.load_p1ulv3197 conn=wye bus1=p1ulv3197.1.2 kV=0.2080002494301389 Vminpu=0.8 Vmaxpu=1.2 model=1 kW=6.84007 kvar=1.3889354528428337 Phases=2

New Load.load_p1ulv3198 conn=wye bus1=p1ulv3197.1.2 kV=0.2080002494301389 Vminpu=0.8 Vmaxpu=1.2 model=1 kW=8.30008 kvar=1.689741137088585 Phases=2

New Load.load_p1ulv3199 conn=wye bus1=p1ulv3199.1.2 kV=0.2080002494301389 Vminpu=0.8 Vmaxpu=1.2 model=1 kW=16.9502 kvar=3.4418849094784987 Phases=2

New Load.load_p1ulv3200 conn=wye bus1=p1ulv3199.1.2 kV=0.2080002494301389 Vminpu=0.8 Vmaxpu=1.2 model=1 kW=9.06009 kvar=1.839729740623536 Phases=2

New Load.load_p1ulv3201 conn=wye bus1=p1ulv3201.1.2 kV=0.2080002494301389 Vminpu=0.8 Vmaxpu=1.2 model=1 kW=15.640200000000002 kvar=3.184052362422156 Phases=2

New Load.load_p1ulv3202 conn=wye bus1=p1ulv3201.1.2 kV=0.2080002494301389 Vminpu=0.8 Vmaxpu=1.2 model=1 kW=11.7401 kvar=2.3777791090522133 Phases=2

New Load.load_p1ulv3203 conn=wye bus1=p1ulv3203.1.2 kV=0.2080002494301389 Vminpu=0.8 Vmaxpu=1.2 model=1 kW=6.84007 kvar=1.3889354528428337 Phases=2

New Load.load_p1ulv3204 conn=wye bus1=p1ulv3203.1.2 kV=0.2080002494301389 Vminpu=0.8 Vmaxpu=1.2 model=1 kW=3.37003 kvar=0.6807790649347335 Phases=2

New Load.load_p1ulv3205 conn=wye bus1=p1ulv3205.1.2 kV=0.2080002494301389 Vminpu=0.8 Vmaxpu=1.2 model=1 kW=4.670050000000001 kvar=0.9507348841529898 Phases=2

New Load.load_p1ulv3206 conn=wye bus1=p1ulv3206.1.2 kV=0.2080002494301389 Vminpu=0.8 Vmaxpu=1.2 model=1 kW=8.01008 kvar=1.6307025579717946 Phases=2

New Load.load_p1ulv3207 conn=wye bus1=p1ulv3206.1.2 kV=0.2080002494301389 Vminpu=0.8 Vmaxpu=1.2 model=1 kW=6.79007 kvar=1.3787825198111334 Phases=2

New Load.load_p1ulv3208 conn=wye bus1=p1ulv3208.1.2 kV=0.2080002494301389 Vminpu=0.8 Vmaxpu=1.2 model=1 kW=11.8501 kvar=2.4124588496271655 Phases=2

New Load.load_p1ulv3209 conn=wye bus1=p1ulv3208.1.2 kV=0.2080002494301389 Vminpu=0.8 Vmaxpu=1.2 model=1 kW=6.52007 kvar=1.3205412420301414 Phases=2

New Load.load_p1ulv3210 conn=wye bus1=p1ulv3210.1.2 kV=0.2080002494301389 Vminpu=0.8 Vmaxpu=1.2 model=1 kW=8.66009 kvar=1.7585062763699344 Phases=2

New Load.load_p1ulv3211 conn=wye bus1=p1ulv3211.1.2 kV=0.2080002494301389 Vminpu=0.8 Vmaxpu=1.2 model=1 kW=9.22009 kvar=1.8722191263249766 Phases=2

New Load.load_p1ulv3212 conn=wye bus1=p1ulv3212.1.2.3 kV=0.48 Vminpu=0.8 Vmaxpu=1.2 model=1 kW=25.6403 kvar=5.206484976254061 Phases=3

New Load.load_p1ulv3213 conn=wye bus1=p1ulv3213.1.2 kV=0.2080002494301389 Vminpu=0.8 Vmaxpu=1.2 model=1 kW=17.1702 kvar=3.4865578148179805 Phases=2

New Load.load_p1ulv3214 conn=wye bus1=p1ulv3214.1.2.3 kV=0.48 Vminpu=0.8 Vmaxpu=1.2 model=1 kW=36.68039999999999 kvar=7.448272895519531 Phases=3

New Load.load_p1ulv3215 conn=wye bus1=p1ulv3215.1.2 kV=0.2080002494301389 Vminpu=0.8 Vmaxpu=1.2 model=1 kW=13.930100000000001 kvar=2.828627448497743 Phases=2

New Load.load_p1ulv3216 conn=wye bus1=p1ulv3215.1.2 kV=0.2080002494301389 Vminpu=0.8 Vmaxpu=1.2 model=1 kW=7.57008 kvar=1.5411267827601127 Phases=2

New Load.load_p1ulv3217 conn=wye bus1=p1ulv3217.1.2 kV=0.2080002494301389 Vminpu=0.8 Vmaxpu=1.2 model=1 kW=8.45008 kvar=1.7202783331834768 Phases=2

New Load.load_p1ulv3218 conn=wye bus1=p1ulv3218.1.2.3 kV=0.48 Vminpu=0.8 Vmaxpu=1.2 model=1 kW=51.3705 kvar=10.431224926099116 Phases=3

New Load.load_p1ulv3219 conn=wye bus1=p1ulv3219.1.2 kV=0.2080002494301389 Vminpu=0.8 Vmaxpu=1.2 model=1 kW=3.9400400000000007 kvar=0.8000592452444024 Phases=2

New Load.load_p1ulv3814 conn=wye bus1=p1ulv3814.1.2 kV=0.2080002494301389 Vminpu=0.8 Vmaxpu=1.2 model=1 kW=10.5501 kvar=2.142289175554809 Phases=2

New Load.load_p1ulv3815 conn=wye bus1=p1ulv3815.1.2 kV=0.2080002494301389 Vminpu=0.8 Vmaxpu=1.2 model=1 kW=3.2800300000000004 kvar=0.6694632252334703 Phases=2

New Load.load_p1ulv3816 conn=wye bus1=p1ulv3816.1.2 kV=0.2080002494301389 Vminpu=0.8 Vmaxpu=1.2 model=1 kW=3.35003 kvar=0.6802526048837334 Phases=2

New Load.load_p1ulv3817 conn=wye bus1=p1ulv3817.1.2 kV=0.2080002494301389 Vminpu=0.8 Vmaxpu=1.2 model=1 kW=3.31003 kvar=0.6703963496338274 Phases=2

New Load.load_p1ulv3818 conn=wye bus1=p1ulv3818.1.2 kV=0.2080002494301389 Vminpu=0.8 Vmaxpu=1.2 model=1 kW=3.59004 kvar=0.7308650364566972 Phases=2

New Load.load_p1ulv3819 conn=wye bus1=p1ulv3819.1.2 kV=0.2080002494301389 Vminpu=0.8 Vmaxpu=1.2 model=1 kW=3.51004 kvar=0.7109053401536299 Phases=2

New Load.load_p1ulv3820 conn=wye bus1=p1ulv3820.1.2 kV=0.2080002494301389 Vminpu=0.8 Vmaxpu=1.2 model=1 kW=3.45003 kvar=0.7005584709471337 Phases=2

New Load.load_p1ulv3821 conn=wye bus1=p1ulv3821.1.2 kV=0.2080002494301389 Vminpu=0.8 Vmaxpu=1.2 model=1 kW=3.21003 kvar=0.6501428670480555 Phases=2

New Load.load_p1ulv3822 conn=wye bus1=p1ulv3822.1.2 kV=0.2080002494301389 Vminpu=0.8 Vmaxpu=1.2 model=1 kW=2.84003 kvar=0.5796580042133189 Phases=2

New Load.load_p1ulv4534 conn=wye bus1=p1ulv4534.1.2 kV=0.2080002494301389 Vminpu=0.8 Vmaxpu=1.2 model=1 kW=2.85003 kvar=0.5802128332421591 Phases=2

New Load.load_p1ulv4550 conn=wye bus1=p1ulv4550.1.2 kV=0.2080002494301389 Vminpu=0.8 Vmaxpu=1.2 model=1 kW=3.51004 kvar=0.7109053401536299 Phases=2

New Load.load_p1ulv4572 conn=wye bus1=p1ulv4572.1.2 kV=0.2080002494301389 Vminpu=0.8 Vmaxpu=1.2 model=1 kW=4.98005 kvar=1.011242282890373 Phases=2

New Load.load_p1ulv4578 conn=wye bus1=p1ulv4578.1.2 kV=0.2080002494301389 Vminpu=0.8 Vmaxpu=1.2 model=1 kW=3.63004 kvar=0.7409012375272501 Phases=2

New Load.load_p1ulv4581 conn=wye bus1=p1ulv4581.1.2 kV=0.2080002494301389 Vminpu=0.8 Vmaxpu=1.2 model=1 kW=3.27003 kvar=0.660578085568534 Phases=2

New Load.load_p1ulv4584 conn=wye bus1=p1ulv4584.1.2 kV=0.2080002494301389 Vminpu=0.8 Vmaxpu=1.2 model=1 kW=3.67004 kvar=0.749065348529082 Phases=2

New Load.load_p1ulv4585 conn=wye bus1=p1ulv4585.1.2 kV=0.2080002494301389 Vminpu=0.8 Vmaxpu=1.2 model=1 kW=2.44002 kvar=0.5005510952023011 Phases=2

New Load.load_p1ulv4586 conn=wye bus1=p1ulv4586.1.2 kV=0.2080002494301389 Vminpu=0.8 Vmaxpu=1.2 model=1 kW=1.81002 kvar=0.37037185450398985 Phases=2

New Load.load_p1ulv4589 conn=wye bus1=p1ulv4589.1.2 kV=0.2080002494301389 Vminpu=0.8 Vmaxpu=1.2 model=1 kW=3.92004 kvar=0.8000910422905317 Phases=2

New Load.load_p1ulv4590 conn=wye bus1=p1ulv4590.1.2 kV=0.2080002494301389 Vminpu=0.8 Vmaxpu=1.2 model=1 kW=3.52004 kvar=0.7202814017128122 Phases=2

New Load.load_p1ulv4593 conn=wye bus1=p1ulv4593.1.2 kV=0.2080002494301389 Vminpu=0.8 Vmaxpu=1.2 model=1 kW=3.0100300000000004 kvar=0.6096359018765115 Phases=2

New Load.load_p1ulv4595 conn=wye bus1=p1ulv4595.1.2 kV=0.2080002494301389 Vminpu=0.8 Vmaxpu=1.2 model=1 kW=2.84003 kvar=0.5796580042133189 Phases=2

New Load.load_p1ulv4596 conn=wye bus1=p1ulv4596.1.2 kV=0.2080002494301389 Vminpu=0.8 Vmaxpu=1.2 model=1 kW=2.23002 kvar=0.45048588006212237 Phases=2

New Load.load_p1ulv4597 conn=wye bus1=p1ulv4597.1.2 kV=0.2080002494301389 Vminpu=0.8 Vmaxpu=1.2 model=1 kW=3.51004 kvar=0.7109053401536299 Phases=2

New Load.load_p1ulv4600 conn=wye bus1=p1ulv4600.1.2 kV=0.2080002494301389 Vminpu=0.8 Vmaxpu=1.2 model=1 kW=3.02003 kvar=0.6100756371530351 Phases=2

New Load.load_p1ulv4608 conn=wye bus1=p1ulv4608.1.2 kV=0.2080002494301389 Vminpu=0.8 Vmaxpu=1.2 model=1 kW=2.50002 kvar=0.510261019669997 Phases=2

New Load.load_p1ulv4610 conn=wye bus1=p1ulv4610.1.2 kV=0.2080002494301389 Vminpu=0.8 Vmaxpu=1.2 model=1 kW=2.7800300000000004 kvar=0.5601303263507202 Phases=2

New Load.load_p1ulv4612 conn=wye bus1=p1ulv4612.1.2 kV=0.2080002494301389 Vminpu=0.8 Vmaxpu=1.2 model=1 kW=3.20003 kvar=0.6497938057886328 Phases=2

New Load.load_p1ulv4616 conn=wye bus1=p1ulv4616.1.2 kV=0.2080002494301389 Vminpu=0.8 Vmaxpu=1.2 model=1 kW=3.12003 kvar=0.6302766165192346 Phases=2

New Load.load_p1ulv4617 conn=wye bus1=p1ulv4617.1.2 kV=0.2080002494301389 Vminpu=0.8 Vmaxpu=1.2 model=1 kW=3.0100300000000004 kvar=0.6096359018765115 Phases=2

New Load.load_p1ulv4618 conn=wye bus1=p1ulv4618.1.2 kV=0.2080002494301389 Vminpu=0.8 Vmaxpu=1.2 model=1 kW=3.83004 kvar=0.7797245502085238 Phases=2

New Load.load_p1ulv4623 conn=wye bus1=p1ulv4623.1.2 kV=0.2080002494301389 Vminpu=0.8 Vmaxpu=1.2 model=1 kW=4.4900400000000005 kvar=0.9093894694941951 Phases=2

New Load.load_p1ulv4629 conn=wye bus1=p1ulv4629.1.2 kV=0.2080002494301389 Vminpu=0.8 Vmaxpu=1.2 model=1 kW=3.09003 kvar=0.6306836979747686 Phases=2

New Load.load_p1ulv4636 conn=wye bus1=p1ulv4636.1.2 kV=0.2080002494301389 Vminpu=0.8 Vmaxpu=1.2 model=1 kW=6.26006 kvar=1.2711593990885048 Phases=2

New Load.load_p1ulv4637 conn=wye bus1=p1ulv4637.1.2 kV=0.2080002494301389 Vminpu=0.8 Vmaxpu=1.2 model=1 kW=2.09002 kvar=0.42000226641916955 Phases=2

New Load.load_p1ulv4639 conn=wye bus1=p1ulv4639.1.2 kV=0.2080002494301389 Vminpu=0.8 Vmaxpu=1.2 model=1 kW=1.96002 kvar=0.40004552114526587 Phases=2

New Load.load_p1ulv4642 conn=wye bus1=p1ulv4642.1.2 kV=0.2080002494301389 Vminpu=0.8 Vmaxpu=1.2 model=1 kW=3.47003 kvar=0.7100482018344989 Phases=2

New Load.load_p1ulv4643 conn=wye bus1=p1ulv4643.1.2 kV=0.2080002494301389 Vminpu=0.8 Vmaxpu=1.2 model=1 kW=7.51008 kvar=1.5210527449775426 Phases=2

New Load.load_p1ulv5718 conn=wye bus1=p1ulv5718.1.2.3 kV=0.48 Vminpu=0.8 Vmaxpu=1.2 model=1 kW=32.25030000000001 kvar=6.548702723044831 Phases=3

New Load.load_p1ulv5719 conn=wye bus1=p1ulv5719.1.2 kV=0.2080002494301389 Vminpu=0.8 Vmaxpu=1.2 model=1 kW=5.80006 kvar=1.1807837972142463 Phases=2

New Load.load_p1ulv5720 conn=wye bus1=p1ulv5720.1.2 kV=0.2080002494301389 Vminpu=0.8 Vmaxpu=1.2 model=1 kW=14.7801 kvar=3.0012273100366467 Phases=2

New Load.load_p1ulv5721 conn=wye bus1=p1ulv5721.1.2.3 kV=0.48 Vminpu=0.8 Vmaxpu=1.2 model=1 kW=36.7504 kvar=7.462487001763911 Phases=3

New Load.load_p1ulv5722 conn=wye bus1=p1ulv5722.1.2 kV=0.2080002494301389 Vminpu=0.8 Vmaxpu=1.2 model=1 kW=13.760100000000001 kvar=2.7868994572848065 Phases=2

New Load.load_p1ulv5723 conn=wye bus1=p1ulv5723.1.2 kV=0.2080002494301389 Vminpu=0.8 Vmaxpu=1.2 model=1 kW=14.4401 kvar=2.932187365421085 Phases=2

New Load.load_p1ulv6441 conn=wye bus1=p1ulv6441.1.2 kV=0.2080002494301389 Vminpu=0.8 Vmaxpu=1.2 model=1 kW=4.64005 kvar=0.9397717187211114 Phases=2

New Load.load_p1ulv6442 conn=wye bus1=p1ulv6442.1.2 kV=0.2080002494301389 Vminpu=0.8 Vmaxpu=1.2 model=1 kW=5.84006 kvar=1.1889270495062174 Phases=2

New Load.load_p1ulv6443 conn=wye bus1=p1ulv6443.1.2 kV=0.2080002494301389 Vminpu=0.8 Vmaxpu=1.2 model=1 kW=6.72007 kvar=1.3610482072016854 Phases=2

New Load.load_p1ulv6444 conn=wye bus1=p1ulv6444.1.2 kV=0.2080002494301389 Vminpu=0.8 Vmaxpu=1.2 model=1 kW=5.93006 kvar=1.2010436694258284 Phases=2

New Load.load_p1ulv6445 conn=wye bus1=p1ulv6445.1.2 kV=0.2080002494301389 Vminpu=0.8 Vmaxpu=1.2 model=1 kW=3.77004 kvar=0.7694756260336619 Phases=2

New Load.load_p1ulv6448 conn=wye bus1=p1ulv6448.1.2.3 kV=0.48 Vminpu=0.8 Vmaxpu=1.2 model=1 kW=48.6305 kvar=9.874844195961945 Phases=3

New Load.load_p1ulv6449 conn=wye bus1=p1ulv6449.1.2 kV=0.2080002494301389 Vminpu=0.8 Vmaxpu=1.2 model=1 kW=3.72004 kvar=0.7592704872813721 Phases=2

New Load.load_p1ulv6450 conn=wye bus1=p1ulv6450.1.2 kV=0.2080002494301389 Vminpu=0.8 Vmaxpu=1.2 model=1 kW=6.310060000000001 kvar=1.2813123321202051 Phases=2

New Load.load_p1ulv6451 conn=wye bus1=p1ulv6451.1.2.3 kV=0.48 Vminpu=0.8 Vmaxpu=1.2 model=1 kW=179.542 kvar=36.4575580475504 Phases=3

New Load.load_p1ulv6452 conn=wye bus1=p1ulv6452.1.2 kV=0.2080002494301389 Vminpu=0.8 Vmaxpu=1.2 model=1 kW=8.15008 kvar=1.6592039409936938 Phases=2

New Load.load_p1ulv6453 conn=wye bus1=p1ulv6453.1.2.3 kV=0.48 Vminpu=0.8 Vmaxpu=1.2 model=1 kW=27.960300000000004 kvar=5.67758106892495 Phases=3

New Load.load_p1ulv6454 conn=wye bus1=p1ulv6454.1.2 kV=0.2080002494301389 Vminpu=0.8 Vmaxpu=1.2 model=1 kW=4.42004 kvar=0.8998375215150975 Phases=2

New Load.load_p1ulv6455 conn=wye bus1=p1ulv6455.1.2 kV=0.2080002494301389 Vminpu=0.8 Vmaxpu=1.2 model=1 kW=9.13009 kvar=1.849161188215306 Phases=2

New Load.load_p1ulv6457 conn=wye bus1=p1ulv6457.1.2 kV=0.2080002494301389 Vminpu=0.8 Vmaxpu=1.2 model=1 kW=7.86008 kvar=1.6001653618769034 Phases=2

New Load.load_p1ulv6458 conn=wye bus1=p1ulv6458.1.2 kV=0.2080002494301389 Vminpu=0.8 Vmaxpu=1.2 model=1 kW=6.29006 kvar=1.280538637790892 Phases=2

New Load.load_p1ulv6459 conn=wye bus1=p1ulv6459.1.2 kV=0.2080002494301389 Vminpu=0.8 Vmaxpu=1.2 model=1 kW=5.810060000000001 kvar=1.1797830018032032 Phases=2

New Load.load_p1ulv6460 conn=wye bus1=p1ulv6460.1.2 kV=0.2080002494301389 Vminpu=0.8 Vmaxpu=1.2 model=1 kW=5.32005 kvar=1.0802822275059345 Phases=2

New Load.load_p1ulv6461 conn=wye bus1=p1ulv6461.1.2 kV=0.2080002494301389 Vminpu=0.8 Vmaxpu=1.2 model=1 kW=4.57005 kvar=0.9303767534230621 Phases=2

New Load.load_p1ulv6462 conn=wye bus1=p1ulv6462.1.2 kV=0.2080002494301389 Vminpu=0.8 Vmaxpu=1.2 model=1 kW=6.23006 kvar=1.271572534701827 Phases=2

New Load.load_p1ulv6463 conn=wye bus1=p1ulv6463.1.2 kV=0.2080002494301389 Vminpu=0.8 Vmaxpu=1.2 model=1 kW=5.14005 kvar=1.0410391316499712 Phases=2

New Load.load_p1ulv6464 conn=wye bus1=p1ulv6464.1.2 kV=0.2080002494301389 Vminpu=0.8 Vmaxpu=1.2 model=1 kW=6.16006 kvar=1.2508535330251045 Phases=2

New Load.load_p1ulv6465 conn=wye bus1=p1ulv6465.1.2 kV=0.2080002494301389 Vminpu=0.8 Vmaxpu=1.2 model=1 kW=5.83006 kvar=1.180790186840056 Phases=2

New Load.load_p1ulv6466 conn=wye bus1=p1ulv6466.1.2.3 kV=0.48 Vminpu=0.8 Vmaxpu=1.2 model=1 kW=128.251 kvar=26.042476284971688 Phases=3

New Load.load_p1ulv6467 conn=wye bus1=p1ulv6467.1.2 kV=0.2080002494301389 Vminpu=0.8 Vmaxpu=1.2 model=1 kW=4.89005 kvar=0.9904054251855413 Phases=2

New Load.load_p1ulv6468 conn=wye bus1=p1ulv6468.1.2 kV=0.2080002494301389 Vminpu=0.8 Vmaxpu=1.2 model=1 kW=6.41006 kvar=1.3016181981836055 Phases=2

New Load.load_p1ulv7904 conn=wye bus1=p1ulv7904.1.2 kV=0.2080002494301389 Vminpu=0.8 Vmaxpu=1.2 model=1 kW=3.57004 kvar=0.7193043493362031 Phases=2

New Load.load_p1ulv7908 conn=wye bus1=p1ulv7908.1.2 kV=0.2080002494301389 Vminpu=0.8 Vmaxpu=1.2 model=1 kW=3.49003 kvar=0.7105048699136965 Phases=2

New Load.load_p1ulv7909 conn=wye bus1=p1ulv7909.1.2 kV=0.2080002494301389 Vminpu=0.8 Vmaxpu=1.2 model=1 kW=5.91006 kvar=1.200088867866603 Phases=2

New Load.load_p1ulv7910 conn=wye bus1=p1ulv7910.1.2 kV=0.2080002494301389 Vminpu=0.8 Vmaxpu=1.2 model=1 kW=3.85004 kvar=0.7797671809452545 Phases=2

New Load.load_p1ulv7911 conn=wye bus1=p1ulv7911.1.2 kV=0.2080002494301389 Vminpu=0.8 Vmaxpu=1.2 model=1 kW=3.41003 kvar=0.6906498322195993 Phases=2

New Load.load_p1ulv7912 conn=wye bus1=p1ulv7912.1.2 kV=0.2080002494301389 Vminpu=0.8 Vmaxpu=1.2 model=1 kW=3.6900400000000007 kvar=0.7492945800859013 Phases=2

New Load.load_p1ulv7913 conn=wye bus1=p1ulv7913.1.2 kV=0.2080002494301389 Vminpu=0.8 Vmaxpu=1.2 model=1 kW=4.71005 kvar=0.9588781364449609 Phases=2

New Load.load_p1ulv7914 conn=wye bus1=p1ulv7914.1.2 kV=0.2080002494301389 Vminpu=0.8 Vmaxpu=1.2 model=1 kW=3.13003 kvar=0.6404763570309296 Phases=2

New Load.load_p1ulv7915 conn=wye bus1=p1ulv7915.1.2 kV=0.2080002494301389 Vminpu=0.8 Vmaxpu=1.2 model=1 kW=3.37003 kvar=0.6807790649347335 Phases=2

New Load.load_p1ulv7918 conn=wye bus1=p1ulv7918.1.2 kV=0.2080002494301389 Vminpu=0.8 Vmaxpu=1.2 model=1 kW=2.97003 kvar=0.5999751474699353 Phases=2

New Load.load_p1ulv7920 conn=wye bus1=p1ulv7920.1.2 kV=0.2080002494301389 Vminpu=0.8 Vmaxpu=1.2 model=1 kW=6.21006 kvar=1.2610064660568046 Phases=2

New Load.load_p1ulv7923 conn=wye bus1=p1ulv7923.1.2 kV=0.2080002494301389 Vminpu=0.8 Vmaxpu=1.2 model=1 kW=6.03006 kvar=1.2212971520116003 Phases=2

New Load.load_p1ulv7924 conn=wye bus1=p1ulv7924.1.2 kV=0.2080002494301389 Vminpu=0.8 Vmaxpu=1.2 model=1 kW=3.23003 kvar=0.6592580864811803 Phases=2

New Load.load_p1ulv7925 conn=wye bus1=p1ulv7925.1.2 kV=0.2080002494301389 Vminpu=0.8 Vmaxpu=1.2 model=1 kW=3.14003 kvar=0.6392514123589496 Phases=2

New Load.load_p1ulv7927 conn=wye bus1=p1ulv7927.1.2 kV=0.2080002494301389 Vminpu=0.8 Vmaxpu=1.2 model=1 kW=3.2800300000000004 kvar=0.6694632252334703 Phases=2

New Load.load_p1ulv7928 conn=wye bus1=p1ulv7928.1.2 kV=0.2080002494301389 Vminpu=0.8 Vmaxpu=1.2 model=1 kW=3.20003 kvar=0.6497938057886328 Phases=2

New Load.load_p1ulv7929 conn=wye bus1=p1ulv7929.1.2 kV=0.2080002494301389 Vminpu=0.8 Vmaxpu=1.2 model=1 kW=3.18003 kvar=0.6407237481987894 Phases=2

New Load.load_p1ulv7932 conn=wye bus1=p1ulv7932.1.2 kV=0.2080002494301389 Vminpu=0.8 Vmaxpu=1.2 model=1 kW=2.46002 kvar=0.49952836633286324 Phases=2

New Load.load_p1ulv7933 conn=wye bus1=p1ulv7933.1.2 kV=0.2080002494301389 Vminpu=0.8 Vmaxpu=1.2 model=1 kW=4.39004 kvar=0.8891359869084231 Phases=2

New Load.load_p1ulv7936 conn=wye bus1=p1ulv7936.1.2 kV=0.2080002494301389 Vminpu=0.8 Vmaxpu=1.2 model=1 kW=4.34004 kvar=0.8790092456155372 Phases=2

New Load.load_p1ulv7937 conn=wye bus1=p1ulv7937.1.2 kV=0.2080002494301389 Vminpu=0.8 Vmaxpu=1.2 model=1 kW=5.10005 kvar=1.0409343578723245 Phases=2

New Load.load_p1ulv7938 conn=wye bus1=p1ulv7938.1.2 kV=0.2080002494301389 Vminpu=0.8 Vmaxpu=1.2 model=1 kW=3.38003 kvar=0.6898735027380501 Phases=2

New Load.load_p1ulv7939 conn=wye bus1=p1ulv7939.1.2 kV=0.2080002494301389 Vminpu=0.8 Vmaxpu=1.2 model=1 kW=6.56007 kvar=1.3286426350644502 Phases=2

New Load.load_p1ulv7940 conn=wye bus1=p1ulv7940.1.2 kV=0.2080002494301389 Vminpu=0.8 Vmaxpu=1.2 model=1 kW=4.46004 kvar=0.910306540815263 Phases=2

New Load.load_p1ulv7941 conn=wye bus1=p1ulv7941.1.2 kV=0.2080002494301389 Vminpu=0.8 Vmaxpu=1.2 model=1 kW=8.19008 kvar=1.6587764265607916 Phases=2

New Load.load_p1ulv7942 conn=wye bus1=p1ulv7942.1.2 kV=0.2080002494301389 Vminpu=0.8 Vmaxpu=1.2 model=1 kW=2.93003 kvar=0.5903528595437461 Phases=2

New Load.load_p1ulv7943 conn=wye bus1=p1ulv7943.1.2 kV=0.2080002494301389 Vminpu=0.8 Vmaxpu=1.2 model=1 kW=11.7901 kvar=2.387905850345099 Phases=2

New Load.load_p1ulv7952 conn=wye bus1=p1ulv7952.1.2 kV=0.2080002494301389 Vminpu=0.8 Vmaxpu=1.2 model=1 kW=6.84007 kvar=1.3889354528428337 Phases=2

New Load.load_p1ulv7955 conn=wye bus1=p1ulv7955.1.2 kV=0.2080002494301389 Vminpu=0.8 Vmaxpu=1.2 model=1 kW=6.85007 kvar=1.3909660394491736 Phases=2

New Load.load_p1ulv7962 conn=wye bus1=p1ulv7962.1.2 kV=0.2080002494301389 Vminpu=0.8 Vmaxpu=1.2 model=1 kW=3.22003 kvar=0.6504775958854341 Phases=2

New Load.load_p1ulv8844 conn=wye bus1=p1ulv8844.1.2 kV=0.2080002494301389 Vminpu=0.8 Vmaxpu=1.2 model=1 kW=10.5001 kvar=2.1321362425231087 Phases=2

New Load.load_p1ulv8845 conn=wye bus1=p1ulv8845.1.2 kV=0.2080002494301389 Vminpu=0.8 Vmaxpu=1.2 model=1 kW=18.2502 kvar=3.705861168302705 Phases=2

New Load.load_p1ulv8846 conn=wye bus1=p1ulv8846.1.2 kV=0.2080002494301389 Vminpu=0.8 Vmaxpu=1.2 model=1 kW=6.350060000000001 kvar=1.2894346785455655 Phases=2

New Load.load_p1ulv8847 conn=wye bus1=p1ulv8847.1.2 kV=0.2080002494301389 Vminpu=0.8 Vmaxpu=1.2 model=1 kW=6.45006 kvar=1.3097405446089656 Phases=2

New Load.load_p1ulv8848 conn=wye bus1=p1ulv8848.1.2.3 kV=0.48 Vminpu=0.8 Vmaxpu=1.2 model=1 kW=105.441 kvar=21.410708235910047 Phases=3

New Load.load_p1ulv8849 conn=wye bus1=p1ulv8849.1.2.3 kV=0.48 Vminpu=0.8 Vmaxpu=1.2 model=1 kW=234.912 kvar=47.700916086855216 Phases=3

New Load.load_p1ulv8850 conn=wye bus1=p1ulv8850.1.2 kV=0.2080002494301389 Vminpu=0.8 Vmaxpu=1.2 model=1 kW=18.3002 kvar=3.7160141013344057 Phases=2

New Load.load_p1ulv8851 conn=wye bus1=p1ulv8851.1.2.3 kV=0.48 Vminpu=0.8 Vmaxpu=1.2 model=1 kW=52.1605 kvar=10.591641267999979 Phases=3

New Load.load_p1ulv8852 conn=wye bus1=p1ulv8852.1.2.3 kV=0.48 Vminpu=0.8 Vmaxpu=1.2 model=1 kW=22.7602 kvar=4.6216557277620645 Phases=3

New Load.load_p1ulv8853 conn=wye bus1=p1ulv8853.1.2.3 kV=0.48 Vminpu=0.8 Vmaxpu=1.2 model=1 kW=36.4904 kvar=7.4096917499990695 Phases=3

New Load.load_p1ulv8854 conn=wye bus1=p1ulv8854.1.2.3 kV=0.48 Vminpu=0.8 Vmaxpu=1.2 model=1 kW=59.0806 kvar=11.996827505453354 Phases=3

New Load.load_p1ulv8855 conn=wye bus1=p1ulv8855.1.2.3 kV=0.48 Vminpu=0.8 Vmaxpu=1.2 model=1 kW=27.840299999999996 kvar=5.653214029648868 Phases=3

New Load.load_p1ulv8856 conn=wye bus1=p1ulv8856.1.2.3 kV=0.48 Vminpu=0.8 Vmaxpu=1.2 model=1 kW=49.5105 kvar=10.053535817319869 Phases=3

New Load.load_p1ulv8857 conn=wye bus1=p1ulv8857.1.2.3 kV=0.48 Vminpu=0.8 Vmaxpu=1.2 model=1 kW=26.5703 kvar=5.395329530643684 Phases=3

New Load.load_p1ulv8858 conn=wye bus1=p1ulv8858.1.2 kV=0.2080002494301389 Vminpu=0.8 Vmaxpu=1.2 model=1 kW=3.06003 kvar=0.6197626431693976 Phases=2

New Load.load_p1ulv8859 conn=wye bus1=p1ulv8859.1.2 kV=0.2080002494301389 Vminpu=0.8 Vmaxpu=1.2 model=1 kW=3.56004 kvar=0.7191629458284491 Phases=2

New Load.load_p1ulv8860 conn=wye bus1=p1ulv8860.1.2 kV=0.2080002494301389 Vminpu=0.8 Vmaxpu=1.2 model=1 kW=2.7600300000000004 kvar=0.5604479951096709 Phases=2

New Load.load_p1ulv8861 conn=wye bus1=p1ulv8861.1.2 kV=0.2080002494301389 Vminpu=0.8 Vmaxpu=1.2 model=1 kW=14.4801 kvar=2.940309711846446 Phases=2

New Load.load_p1ulv8862 conn=wye bus1=p1ulv8862.1.2 kV=0.2080002494301389 Vminpu=0.8 Vmaxpu=1.2 model=1 kW=3.49003 kvar=0.7105048699136965 Phases=2

New Load.load_p1ulv8863 conn=wye bus1=p1ulv8862.1.2 kV=0.2080002494301389 Vminpu=0.8 Vmaxpu=1.2 model=1 kW=3.7100400000000002 kvar=0.7494644148777485 Phases=2

New Load.load_p1ulv8864 conn=wye bus1=p1ulv8864.1.2.3 kV=0.48 Vminpu=0.8 Vmaxpu=1.2 model=1 kW=39.9104 kvar=8.104152369367366 Phases=3

New Load.load_p1ulv8865 conn=wye bus1=p1ulv8865.1.2 kV=0.2080002494301389 Vminpu=0.8 Vmaxpu=1.2 model=1 kW=3.0100300000000004 kvar=0.6096359018765115 Phases=2

New Load.load_p1ulv8866 conn=wye bus1=p1ulv8866.1.2.3 kV=0.48 Vminpu=0.8 Vmaxpu=1.2 model=1 kW=21.9502 kvar=7.206889737114982 Phases=3

New Load.load_p1ulv8867 conn=wye bus1=p1ulv8867.1.2 kV=0.2080002494301389 Vminpu=0.8 Vmaxpu=1.2 model=1 kW=18.2202 kvar=3.6997694084836845 Phases=2

New Load.load_p1ulv8868 conn=wye bus1=p1ulv8868.1.2 kV=0.2080002494301389 Vminpu=0.8 Vmaxpu=1.2 model=1 kW=6.58007 kvar=1.3395792527207553 Phases=2

New Load.load_p1ulv8869 conn=wye bus1=p1ulv8869.1.2 kV=0.2080002494301389 Vminpu=0.8 Vmaxpu=1.2 model=1 kW=4.14004 kvar=1.3592956687066866 Phases=2

New Load.load_p1ulv8870 conn=wye bus1=p1ulv8870.1.2 kV=0.2080002494301389 Vminpu=0.8 Vmaxpu=1.2 model=1 kW=3.15003 kvar=0.6396408727569326 Phases=2

New Load.load_p1ulv8871 conn=wye bus1=p1ulv8871.1.2 kV=0.2080002494301389 Vminpu=0.8 Vmaxpu=1.2 model=1 kW=2.41002 kvar=0.489375433301163 Phases=2

New Load.load_p1ulv8872 conn=wye bus1=p1ulv8872.1.2 kV=0.2080002494301389 Vminpu=0.8 Vmaxpu=1.2 model=1 kW=3.41003 kvar=0.6906498322195993 Phases=2

New Load.load_p1ulv8873 conn=wye bus1=p1ulv8873.1.2 kV=0.2080002494301389 Vminpu=0.8 Vmaxpu=1.2 model=1 kW=3.0300300000000004 kvar=0.6200140497357622 Phases=2

New Load.load_p1ulv8874 conn=wye bus1=p1ulv8874.1.2 kV=0.2080002494301389 Vminpu=0.8 Vmaxpu=1.2 model=1 kW=2.95003 kvar=0.6005709639720869 Phases=2

New Load.load_p1ulv8875 conn=wye bus1=p1ulv8875.1.2 kV=0.2080002494301389 Vminpu=0.8 Vmaxpu=1.2 model=1 kW=3.04003 kvar=0.6204785592224786 Phases=2

New Load.load_p1ulv8876 conn=wye bus1=p1ulv8876.1.2 kV=0.2080002494301389 Vminpu=0.8 Vmaxpu=1.2 model=1 kW=3.59004 kvar=0.7308650364566972 Phases=2

New Load.load_p1ulv8877 conn=wye bus1=p1ulv8877.1.2 kV=0.2080002494301389 Vminpu=0.8 Vmaxpu=1.2 model=1 kW=3.36003 kvar=0.6805230909267135 Phases=2

New Load.load_p1ulv8878 conn=wye bus1=p1ulv8878.1.2 kV=0.2080002494301389 Vminpu=0.8 Vmaxpu=1.2 model=1 kW=3.7100400000000002 kvar=0.7494644148777485 Phases=2

New Load.load_p1ulv8879 conn=wye bus1=p1ulv8879.1.2 kV=0.2080002494301389 Vminpu=0.8 Vmaxpu=1.2 model=1 kW=4.99005 kvar=1.0106589077713133 Phases=2

New Load.load_p1ulv8880 conn=wye bus1=p1ulv8880.1.2 kV=0.2080002494301389 Vminpu=0.8 Vmaxpu=1.2 model=1 kW=3.64004 kvar=0.739141647054201 Phases=2

New Load.load_p1ulv8881 conn=wye bus1=p1ulv8881.1.2 kV=0.2080002494301389 Vminpu=0.8 Vmaxpu=1.2 model=1 kW=3.44003 kvar=0.7003258045487328 Phases=2

New Load.load_p1ulv8882 conn=wye bus1=p1ulv8882.1.2 kV=0.2080002494301389 Vminpu=0.8 Vmaxpu=1.2 model=1 kW=3.99004 kvar=0.8102121782761024 Phases=2

New Load.load_p1ulv8883 conn=wye bus1=p1ulv8883.1.2 kV=0.2080002494301389 Vminpu=0.8 Vmaxpu=1.2 model=1 kW=2.8200300000000005 kvar=0.5696736784206362 Phases=2

New Load.load_p1ulv8884 conn=wye bus1=p1ulv8884.1.2 kV=0.2080002494301389 Vminpu=0.8 Vmaxpu=1.2 model=1 kW=3.13003 kvar=0.6404763570309296 Phases=2

New Load.load_p1ulv8885 conn=wye bus1=p1ulv8885.1.2 kV=0.2080002494301389 Vminpu=0.8 Vmaxpu=1.2 model=1 kW=3.06003 kvar=0.6197626431693976 Phases=2

New Load.load_p1ulv8886 conn=wye bus1=p1ulv8886.1.2 kV=0.2080002494301389 Vminpu=0.8 Vmaxpu=1.2 model=1 kW=3.38003 kvar=0.6898735027380501 Phases=2

New Load.load_p1ulv8887 conn=wye bus1=p1ulv8887.1.2 kV=0.2080002494301389 Vminpu=0.8 Vmaxpu=1.2 model=1 kW=3.85004 kvar=0.7797671809452545 Phases=2

New Load.load_p1ulv8888 conn=wye bus1=p1ulv8888.1.2 kV=0.2080002494301389 Vminpu=0.8 Vmaxpu=1.2 model=1 kW=4.80005 kvar=0.9696571100672596 Phases=2

New Load.load_p1ulv8889 conn=wye bus1=p1ulv8889.1.2 kV=0.2080002494301389 Vminpu=0.8 Vmaxpu=1.2 model=1 kW=3.19003 kvar=0.6494304777239135 Phases=2

New Load.load_p1ulv8890 conn=wye bus1=p1ulv8890.1.2 kV=0.2080002494301389 Vminpu=0.8 Vmaxpu=1.2 model=1 kW=4.2400400000000005 kvar=0.8609768434346036 Phases=2

New Load.load_p1ulv8891 conn=wye bus1=p1ulv8891.1.2 kV=0.2080002494301389 Vminpu=0.8 Vmaxpu=1.2 model=1 kW=3.0500300000000005 kvar=0.6193350066935321 Phases=2

New Load.load_p1ulv8892 conn=wye bus1=p1ulv8892.1.2 kV=0.2080002494301389 Vminpu=0.8 Vmaxpu=1.2 model=1 kW=3.64004 kvar=0.739141647054201 Phases=2

New Load.load_p1ulv8893 conn=wye bus1=p1ulv8893.1.2 kV=0.2080002494301389 Vminpu=0.8 Vmaxpu=1.2 model=1 kW=2.75003 kvar=0.5598547025122315 Phases=2

New Load.load_p1ulv8894 conn=wye bus1=p1ulv8894.1.2.3 kV=0.48 Vminpu=0.8 Vmaxpu=1.2 model=1 kW=26.990300000000005 kvar=5.480614168109967 Phases=3

New Load.load_p1ulv8896 conn=wye bus1=p1ulv8896.1.2 kV=0.2080002494301389 Vminpu=0.8 Vmaxpu=1.2 model=1 kW=2.90003 kvar=0.5903918986071232 Phases=2

New Load.load_p1ulv8897 conn=wye bus1=p1ulv8897.1.2 kV=0.2080002494301389 Vminpu=0.8 Vmaxpu=1.2 model=1 kW=3.93004 kvar=0.8000826809384517 Phases=2

New Load.load_p1ulv8898 conn=wye bus1=p1ulv8898.1.2 kV=0.2080002494301389 Vminpu=0.8 Vmaxpu=1.2 model=1 kW=3.88004 kvar=0.7899036155734878 Phases=2

New Load.load_p1ulv8900 conn=wye bus1=p1ulv8900.1.2 kV=0.2080002494301389 Vminpu=0.8 Vmaxpu=1.2 model=1 kW=2.66003 kvar=0.5401421290462703 Phases=2

New Load.load_p1ulv8901 conn=wye bus1=p1ulv8901.1.2 kV=0.2080002494301389 Vminpu=0.8 Vmaxpu=1.2 model=1 kW=3.67004 kvar=0.7394527047982206 Phases=2

New Load.load_p1ulv8902 conn=wye bus1=p1ulv8902.1.2 kV=0.2080002494301389 Vminpu=0.8 Vmaxpu=1.2 model=1 kW=5.54006 kvar=1.1307416199202263 Phases=2

New Load.load_p1ulv8903 conn=wye bus1=p1ulv8903.1.2 kV=0.2080002494301389 Vminpu=0.8 Vmaxpu=1.2 model=1 kW=4.77005 kvar=0.9710930148829175 Phases=2

New Load.load_p1ulv8904 conn=wye bus1=p1ulv8904.1.2 kV=0.2080002494301389 Vminpu=0.8 Vmaxpu=1.2 model=1 kW=7.53008 kvar=1.529047959266903 Phases=2

New Load.load_p1ulv8908 conn=wye bus1=p1ulv8908.1.2 kV=0.2080002494301389 Vminpu=0.8 Vmaxpu=1.2 model=1 kW=6.54007 kvar=1.3314360004287842 Phases=2

New Load.load_p1ulv8911 conn=wye bus1=p1ulv8911.1.2.3 kV=0.48 Vminpu=0.8 Vmaxpu=1.2 model=1 kW=150.712 kvar=30.603376861472054 Phases=3

New Load.load_p1ulv8913 conn=wye bus1=p1ulv8913.1.2 kV=0.2080002494301389 Vminpu=0.8 Vmaxpu=1.2 model=1 kW=4.21004 kvar=0.850469311708746 Phases=2

New Load.load_p1ulv8915 conn=wye bus1=p1ulv8915.1.2 kV=0.2080002494301389 Vminpu=0.8 Vmaxpu=1.2 model=1 kW=2.75003 kvar=0.5598547025122315 Phases=2

New Load.load_p1ulv8916 conn=wye bus1=p1ulv8916.1.2 kV=0.2080002494301389 Vminpu=0.8 Vmaxpu=1.2 model=1 kW=3.51004 kvar=0.7109053401536299 Phases=2

New Load.load_p1ulv8921 conn=wye bus1=p1ulv8921.1.2 kV=0.2080002494301389 Vminpu=0.8 Vmaxpu=1.2 model=1 kW=4.17004 kvar=0.8489421946902781 Phases=2

New Load.load_p1ulv8932 conn=wye bus1=p1ulv8932.1.2 kV=0.2080002494301389 Vminpu=0.8 Vmaxpu=1.2 model=1 kW=2.95003 kvar=0.6005709639720869 Phases=2

New Load.load_p1ulv8938 conn=wye bus1=p1ulv8938.1.2 kV=0.2080002494301389 Vminpu=0.8 Vmaxpu=1.2 model=1 kW=2.8200300000000005 kvar=0.5696736784206362 Phases=2

New Load.load_p1ulv8939 conn=wye bus1=p1ulv8939.1.2 kV=0.2080002494301389 Vminpu=0.8 Vmaxpu=1.2 model=1 kW=3.0300300000000004 kvar=0.6200140497357622 Phases=2

New Load.load_p1ulv8940 conn=wye bus1=p1ulv8940.1.2 kV=0.2080002494301389 Vminpu=0.8 Vmaxpu=1.2 model=1 kW=2.87003 kvar=0.5797741681037358 Phases=2

New Load.load_p1ulv8942 conn=wye bus1=p1ulv8942.1.2 kV=0.2080002494301389 Vminpu=0.8 Vmaxpu=1.2 model=1 kW=5.170050000000001 kvar=1.0498234284108339 Phases=2

New Load.load_p1ulv8945 conn=wye bus1=p1ulv8945.1.2 kV=0.2080002494301389 Vminpu=0.8 Vmaxpu=1.2 model=1 kW=2.94003 kvar=0.6000682817178988 Phases=2

New Load.load_p1ulv8947 conn=wye bus1=p1ulv8947.1.2 kV=0.2080002494301389 Vminpu=0.8 Vmaxpu=1.2 model=1 kW=3.0300300000000004 kvar=0.6105012150057635 Phases=2

New Load.load_p1ulv8948 conn=wye bus1=p1ulv8948.1.2 kV=0.2080002494301389 Vminpu=0.8 Vmaxpu=1.2 model=1 kW=3.37003 kvar=0.6895858945393315 Phases=2

New Load.load_p1ulv8952 conn=wye bus1=p1ulv8952.1.2 kV=0.2080002494301389 Vminpu=0.8 Vmaxpu=1.2 model=1 kW=2.84003 kvar=0.5796580042133189 Phases=2

New Load.load_p1ulv8956 conn=wye bus1=p1ulv8956.1.2 kV=0.2080002494301389 Vminpu=0.8 Vmaxpu=1.2 model=1 kW=4.27004 kvar=0.869300325420206 Phases=2

New Load.load_p1ulv8963 conn=wye bus1=p1ulv8963.1.2 kV=0.2080002494301389 Vminpu=0.8 Vmaxpu=1.2 model=1 kW=4.05004 kvar=0.8202741461167985 Phases=2

New Load.load_p1ulv8964 conn=wye bus1=p1ulv8964.1.2 kV=0.2080002494301389 Vminpu=0.8 Vmaxpu=1.2 model=1 kW=2.89003 kvar=0.5898631429656088 Phases=2

New Load.load_p1ulv8968 conn=wye bus1=p1ulv8968.1.2 kV=0.2080002494301389 Vminpu=0.8 Vmaxpu=1.2 model=1 kW=3.36003 kvar=0.6805230909267135 Phases=2

New Load.load_p1ulv10383 conn=wye bus1=p1ulv10383.1.2 kV=0.2080002494301389 Vminpu=0.8 Vmaxpu=1.2 model=1 kW=3.51004 kvar=0.7109053401536299 Phases=2

New Load.load_p1ulv10385 conn=wye bus1=p1ulv10385.1.2 kV=0.2080002494301389 Vminpu=0.8 Vmaxpu=1.2 model=1 kW=4.12004 kvar=0.8409115972996914 Phases=2

New Load.load_p1ulv10388 conn=wye bus1=p1ulv10388.1.2 kV=0.2080002494301389 Vminpu=0.8 Vmaxpu=1.2 model=1 kW=3.76004 kvar=0.7595649045608481 Phases=2

New Load.load_p1ulv10389 conn=wye bus1=p1ulv10389.1.2 kV=0.2080002494301389 Vminpu=0.8 Vmaxpu=1.2 model=1 kW=4.04004 kvar=0.8203651113078028 Phases=2

New Load.load_p1ulv10394 conn=wye bus1=p1ulv10394.1.2 kV=0.2080002494301389 Vminpu=0.8 Vmaxpu=1.2 model=1 kW=3.47003 kvar=0.6991539790386396 Phases=2

New Load.load_p1ulv10396 conn=wye bus1=p1ulv10396.1.2 kV=0.2080002494301389 Vminpu=0.8 Vmaxpu=1.2 model=1 kW=3.87004 kvar=0.7797494157222552 Phases=2

New Load.load_p1ulv10401 conn=wye bus1=p1ulv10401.1.2 kV=0.2080002494301389 Vminpu=0.8 Vmaxpu=1.2 model=1 kW=4.29004 kvar=0.8711297764663039 Phases=2

New Load.load_p1ulv10403 conn=wye bus1=p1ulv10403.1.2.3 kV=0.48 Vminpu=0.8 Vmaxpu=1.2 model=1 kW=133.68100000000004 kvar=27.145084812214336 Phases=3

New Load.load_p1ulv10404 conn=wye bus1=p1ulv10404.1.2.3 kV=0.48 Vminpu=0.8 Vmaxpu=1.2 model=1 kW=37.0004 kvar=7.513251666922414 Phases=3

New Load.load_p1ulv10405 conn=wye bus1=p1ulv10405.1.2.3 kV=0.48 Vminpu=0.8 Vmaxpu=1.2 model=1 kW=45.1405 kvar=9.16616947034927 Phases=3

New Load.load_p1ulv10407 conn=wye bus1=p1ulv10407.1.2 kV=0.2080002494301389 Vminpu=0.8 Vmaxpu=1.2 model=1 kW=11.6401 kvar=2.3575256264664413 Phases=2

New Load.load_p1ulv10408 conn=wye bus1=p1ulv10408.1.2 kV=0.2080002494301389 Vminpu=0.8 Vmaxpu=1.2 model=1 kW=6.140060000000001 kvar=1.2500014416960006 Phases=2

New Load.load_p1ulv10410 conn=wye bus1=p1ulv10410.1.2.3 kV=0.48 Vminpu=0.8 Vmaxpu=1.2 model=1 kW=35.470400000000005 kvar=7.202571916152387 Phases=3

New Load.load_p1ulv10413 conn=wye bus1=p1ulv10413.1.2.3 kV=0.48 Vminpu=0.8 Vmaxpu=1.2 model=1 kW=139.301 kvar=45.7860245355208 Phases=3

New Load.load_p1ulv10416 conn=wye bus1=p1ulv10416.1.2 kV=0.2080002494301389 Vminpu=0.8 Vmaxpu=1.2 model=1 kW=13.6501 kvar=2.771771023520222 Phases=2

New Load.load_p1ulv10418 conn=wye bus1=p1ulv10418.1.2 kV=0.2080002494301389 Vminpu=0.8 Vmaxpu=1.2 model=1 kW=6.79007 kvar=1.3787825198111334 Phases=2

New Load.load_p1ulv10421 conn=wye bus1=p1ulv10421.1.2 kV=0.2080002494301389 Vminpu=0.8 Vmaxpu=1.2 model=1 kW=5.45005 kvar=1.109528303846426 Phases=2

New Load.load_p1ulv10423 conn=wye bus1=p1ulv10423.1.2 kV=0.2080002494301389 Vminpu=0.8 Vmaxpu=1.2 model=1 kW=9.5301 kvar=1.9301771439066526 Phases=2

New Load.load_p1ulv10425 conn=wye bus1=p1ulv10425.1.2 kV=0.2080002494301389 Vminpu=0.8 Vmaxpu=1.2 model=1 kW=14.3201 kvar=2.907820326145005 Phases=2

New Load.load_p1ulv10427 conn=wye bus1=p1ulv10427.1.2 kV=0.2080002494301389 Vminpu=0.8 Vmaxpu=1.2 model=1 kW=8.71009 kvar=1.768659209401634 Phases=2

New Load.load_p1ulv10428 conn=wye bus1=p1ulv10428.1.2 kV=0.2080002494301389 Vminpu=0.8 Vmaxpu=1.2 model=1 kW=12.8701 kvar=2.6133852682256986 Phases=2

New Load.load_p1ulv10430 conn=wye bus1=p1ulv10430.1.2.3 kV=0.48 Vminpu=0.8 Vmaxpu=1.2 model=1 kW=24.0302 kvar=4.87954022676725 Phases=3

New Load.load_p1ulv10431 conn=wye bus1=p1ulv10431.1.2 kV=0.2080002494301389 Vminpu=0.8 Vmaxpu=1.2 model=1 kW=4.77005 kvar=0.9710930148829175 Phases=2

New Load.load_p1ulv10433 conn=wye bus1=p1ulv10433.1.2 kV=0.2080002494301389 Vminpu=0.8 Vmaxpu=1.2 model=1 kW=6.75007 kvar=1.3706601733857733 Phases=2

New Load.load_p1ulv10437 conn=wye bus1=p1ulv10437.1.2 kV=0.2080002494301389 Vminpu=0.8 Vmaxpu=1.2 model=1 kW=3.68004 kvar=0.7491873541136322 Phases=2

New Load.load_p1ulv10438 conn=wye bus1=p1ulv10438.1.2 kV=0.2080002494301389 Vminpu=0.8 Vmaxpu=1.2 model=1 kW=14.4601 kvar=2.9438060616782793 Phases=2

New Load.load_p1ulv10440 conn=wye bus1=p1ulv10440.1.2 kV=0.2080002494301389 Vminpu=0.8 Vmaxpu=1.2 model=1 kW=9.5201 kvar=1.9281517956480756 Phases=2

New Load.load_p1ulv10442 conn=wye bus1=p1ulv10442.1.2 kV=0.2080002494301389 Vminpu=0.8 Vmaxpu=1.2 model=1 kW=7.01007 kvar=1.419783306700424 Phases=2

New Load.load_p1ulv10444 conn=wye bus1=p1ulv10444.1.2 kV=0.2080002494301389 Vminpu=0.8 Vmaxpu=1.2 model=1 kW=9.18009 kvar=1.8592879295081928 Phases=2

New Load.load_p1ulv10446 conn=wye bus1=p1ulv10446.1.2 kV=0.2080002494301389 Vminpu=0.8 Vmaxpu=1.2 model=1 kW=5.420050000000001 kvar=1.1005880935693348 Phases=2

New Load.load_p1ulv10463 conn=wye bus1=p1ulv10463.1.2 kV=0.2080002494301389 Vminpu=0.8 Vmaxpu=1.2 model=1 kW=18.5802 kvar=3.772870526311927 Phases=2

New Load.load_p1ulv10718 conn=wye bus1=p1ulv10718.1.2.3 kV=0.48 Vminpu=0.8 Vmaxpu=1.2 model=1 kW=60.150600000000004 kvar=19.770546136971724 Phases=3

New Load.load_p1ulv10719 conn=wye bus1=p1ulv10719.1.2.3 kV=0.48 Vminpu=0.8 Vmaxpu=1.2 model=1 kW=36.24040000000001 kvar=11.911643445324074 Phases=3

New Load.load_p1ulv10720 conn=wye bus1=p1ulv10720.1.2.3 kV=0.48 Vminpu=0.8 Vmaxpu=1.2 model=1 kW=41.270399999999995 kvar=8.38031214782961 Phases=3

New Load.load_p1ulv10721 conn=wye bus1=p1ulv10721.1.2 kV=0.2080002494301389 Vminpu=0.8 Vmaxpu=1.2 model=1 kW=11.7501 kvar=2.392100718897238 Phases=2

New Load.load_p1ulv10722 conn=wye bus1=p1ulv10722.1.2.3 kV=0.48 Vminpu=0.8 Vmaxpu=1.2 model=1 kW=33.200300000000006 kvar=6.741608450647131 Phases=3

New Load.load_p1ulv10723 conn=wye bus1=p1ulv10723.1.2.3 kV=0.48 Vminpu=0.8 Vmaxpu=1.2 model=1 kW=34.0903 kvar=6.922330658611396 Phases=3

New Load.load_p1ulv10724 conn=wye bus1=p1ulv10724.1.2 kV=0.2080002494301389 Vminpu=0.8 Vmaxpu=1.2 model=1 kW=9.15009 kvar=1.8580050200805964 Phases=2

New Load.load_p1ulv10725 conn=wye bus1=p1ulv10725.1.2.3 kV=0.48 Vminpu=0.8 Vmaxpu=1.2 model=1 kW=28.920300000000005 kvar=5.872517383133595 Phases=3

New Load.load_p1ulv10726 conn=wye bus1=p1ulv10726.1.2 kV=0.2080002494301389 Vminpu=0.8 Vmaxpu=1.2 model=1 kW=11.9101 kvar=2.4184489540170544 Phases=2

New Load.load_p1ulv10727 conn=wye bus1=p1ulv10726.1.2 kV=0.2080002494301389 Vminpu=0.8 Vmaxpu=1.2 model=1 kW=9.8001 kvar=1.9899951800793054 Phases=2

New Load.load_p1ulv10728 conn=wye bus1=p1ulv10728.1.2 kV=0.2080002494301389 Vminpu=0.8 Vmaxpu=1.2 model=1 kW=9.47009 kvar=1.9180230290069313 Phases=2

New Load.load_p1ulv10729 conn=wye bus1=p1ulv10729.1.2 kV=0.2080002494301389 Vminpu=0.8 Vmaxpu=1.2 model=1 kW=18.6302 kvar=3.783023459343626 Phases=2

New Load.load_p1ulv10730 conn=wye bus1=p1ulv10730.1.2 kV=0.2080002494301389 Vminpu=0.8 Vmaxpu=1.2 model=1 kW=10.7501 kvar=2.1772696314530715 Phases=2

New Load.load_p1ulv10731 conn=wye bus1=p1ulv10731.1.2 kV=0.2080002494301389 Vminpu=0.8 Vmaxpu=1.2 model=1 kW=5.47005 kvar=1.110741026601035 Phases=2

New Load.load_p1ulv10732 conn=wye bus1=p1ulv10732.1.2 kV=0.2080002494301389 Vminpu=0.8 Vmaxpu=1.2 model=1 kW=7.35007 kvar=1.4886451474920486 Phases=2

New Load.load_p1ulv10733 conn=wye bus1=p1ulv10733.1.2.3 kV=0.48 Vminpu=0.8 Vmaxpu=1.2 model=1 kW=32.2903 kvar=6.5568250694701895 Phases=3

New Load.load_p1ulv10734 conn=wye bus1=p1ulv10734.1.2 kV=0.2080002494301389 Vminpu=0.8 Vmaxpu=1.2 model=1 kW=5.47005 kvar=1.110741026601035 Phases=2

New Load.load_p1ulv10735 conn=wye bus1=p1ulv10735.1.2 kV=0.2080002494301389 Vminpu=0.8 Vmaxpu=1.2 model=1 kW=6.60007 kvar=1.3402013742906727 Phases=2

New Load.load_p1ulv10736 conn=wye bus1=p1ulv10736.1.2.3 kV=0.48 Vminpu=0.8 Vmaxpu=1.2 model=1 kW=29.0603 kvar=5.900945595622355 Phases=3

New Load.load_p1ulv10737 conn=wye bus1=p1ulv10737.1.2 kV=0.2080002494301389 Vminpu=0.8 Vmaxpu=1.2 model=1 kW=6.740070000000001 kvar=1.3686295867794334 Phases=2

New Load.load_p1ulv10738 conn=wye bus1=p1ulv10738.1.2.3 kV=0.48 Vminpu=0.8 Vmaxpu=1.2 model=1 kW=35.03039999999999 kvar=7.113226105473423 Phases=3

New Load.load_p1ulv10739 conn=wye bus1=p1ulv10739.1.2.3 kV=0.48 Vminpu=0.8 Vmaxpu=1.2 model=1 kW=39.3104 kvar=7.982317172986962 Phases=3

New Load.load_p1ulv10740 conn=wye bus1=p1ulv10740.1.2.3 kV=0.48 Vminpu=0.8 Vmaxpu=1.2 model=1 kW=33.450300000000006 kvar=6.792373115805635 Phases=3

New Load.load_p1ulv10741 conn=wye bus1=p1ulv10741.1.2 kV=0.2080002494301389 Vminpu=0.8 Vmaxpu=1.2 model=1 kW=3.0100300000000004 kvar=0.6096359018765115 Phases=2

New Load.load_p1ulv10742 conn=wye bus1=p1ulv10742.1.2.3 kV=0.48 Vminpu=0.8 Vmaxpu=1.2 model=1 kW=32.6503 kvar=6.629926187298432 Phases=3

New Load.load_p1ulv10743 conn=wye bus1=p1ulv10743.1.2 kV=0.2080002494301389 Vminpu=0.8 Vmaxpu=1.2 model=1 kW=8.56009 kvar=1.7382004103065338 Phases=2

New Load.load_p1ulv10744 conn=wye bus1=p1ulv10744.1.2.3 kV=0.48 Vminpu=0.8 Vmaxpu=1.2 model=1 kW=34.4503 kvar=6.995431776439638 Phases=3

New Load.load_p1ulv10745 conn=wye bus1=p1ulv10745.1.2 kV=0.2080002494301389 Vminpu=0.8 Vmaxpu=1.2 model=1 kW=14.590100000000001 kvar=2.9626461645161863 Phases=2

New Load.load_p1ulv10746 conn=wye bus1=p1ulv10746.1.2.3 kV=0.48 Vminpu=0.8 Vmaxpu=1.2 model=1 kW=19.740200000000005 kvar=4.008418572647372 Phases=3

New Load.load_p1ulv10747 conn=wye bus1=p1ulv10747.1.2 kV=0.2080002494301389 Vminpu=0.8 Vmaxpu=1.2 model=1 kW=6.49006 kvar=1.3212548992507473 Phases=2

New Load.load_p1ulv10748 conn=wye bus1=p1ulv10748.1.2 kV=0.2080002494301389 Vminpu=0.8 Vmaxpu=1.2 model=1 kW=9.44009 kvar=1.9218258632228342 Phases=2

New Load.load_p1ulv10749 conn=wye bus1=p1ulv10749.1.2.3 kV=0.48 Vminpu=0.8 Vmaxpu=1.2 model=1 kW=25.600299999999997 kvar=5.198362629828699 Phases=3

New Load.load_p1ulv10750 conn=wye bus1=p1ulv10750.1.2 kV=0.2080002494301389 Vminpu=0.8 Vmaxpu=1.2 model=1 kW=16.2802 kvar=3.305835606853717 Phases=2

New Load.load_p1ulv10751 conn=wye bus1=p1ulv10751.1.2 kV=0.2080002494301389 Vminpu=0.8 Vmaxpu=1.2 model=1 kW=6.73007 kvar=1.370116448815647 Phases=2

New Load.load_p1ulv10752 conn=wye bus1=p1ulv10752.1.2 kV=0.2080002494301389 Vminpu=0.8 Vmaxpu=1.2 model=1 kW=3.97004 kvar=0.8102961810428216 Phases=2

New Load.load_p1ulv10753 conn=wye bus1=p1ulv10753.1.2 kV=0.2080002494301389 Vminpu=0.8 Vmaxpu=1.2 model=1 kW=15.5502 kvar=3.157602784590894 Phases=2

New Load.load_p1ulv10754 conn=wye bus1=p1ulv10754.1.2.3 kV=0.48 Vminpu=0.8 Vmaxpu=1.2 model=1 kW=21.5202 kvar=4.369862988575898 Phases=3

New Load.load_p1ulv10755 conn=wye bus1=p1ulv10755.1.2 kV=0.2080002494301389 Vminpu=0.8 Vmaxpu=1.2 model=1 kW=10.0801 kvar=2.0521199357074447 Phases=2

New Load.load_p1ulv10756 conn=wye bus1=p1ulv10756.1.2 kV=0.2080002494301389 Vminpu=0.8 Vmaxpu=1.2 model=1 kW=7.91008 kvar=1.610344427241867 Phases=2

New Load.load_p1ulv10757 conn=wye bus1=p1ulv10757.1.2.3 kV=0.48 Vminpu=0.8 Vmaxpu=1.2 model=1 kW=46.3605 kvar=9.413901036322756 Phases=3

New Load.load_p1ulv10758 conn=wye bus1=p1ulv10758.1.2.3 kV=0.48 Vminpu=0.8 Vmaxpu=1.2 model=1 kW=122.611 kvar=24.8972254389959 Phases=3

New Load.load_p1ulv10759 conn=wye bus1=p1ulv10759.1.2 kV=0.2080002494301389 Vminpu=0.8 Vmaxpu=1.2 model=1 kW=17.860200000000003 kvar=5.8703638553155315 Phases=2

New Load.load_p1ulv10760 conn=wye bus1=p1ulv10760.1.2.3 kV=0.48 Vminpu=0.8 Vmaxpu=1.2 model=1 kW=19.4602 kvar=6.389350241100537 Phases=3

New Load.load_p1ulv10761 conn=wye bus1=p1ulv10761.1.2 kV=0.2080002494301389 Vminpu=0.8 Vmaxpu=1.2 model=1 kW=2.7800300000000004 kvar=0.5703014980185626 Phases=2

New Load.load_p1ulv10762 conn=wye bus1=p1ulv10762.1.2 kV=0.2080002494301389 Vminpu=0.8 Vmaxpu=1.2 model=1 kW=3.67004 kvar=0.7394527047982206 Phases=2

New Load.load_p1ulv10763 conn=wye bus1=p1ulv10763.1.2 kV=0.2080002494301389 Vminpu=0.8 Vmaxpu=1.2 model=1 kW=3.80004 kvar=0.7696404396523686 Phases=2

New Load.load_p1ulv10767 conn=wye bus1=p1ulv10767.1.2 kV=0.2080002494301389 Vminpu=0.8 Vmaxpu=1.2 model=1 kW=2.97003 kvar=0.5999751474699353 Phases=2

New Load.load_p1ulv10769 conn=wye bus1=p1ulv10769.1.2 kV=0.2080002494301389 Vminpu=0.8 Vmaxpu=1.2 model=1 kW=2.18002 kvar=0.44038539037902263 Phases=2

New Load.load_p1ulv10770 conn=wye bus1=p1ulv10770.1.2 kV=0.2080002494301389 Vminpu=0.8 Vmaxpu=1.2 model=1 kW=2.7600300000000004 kvar=0.5604479951096709 Phases=2

New Load.load_p1ulv10802 conn=wye bus1=p1ulv10802.1.2 kV=0.2080002494301389 Vminpu=0.8 Vmaxpu=1.2 model=1 kW=3.6900400000000007 kvar=0.7492945800859013 Phases=2

New Load.load_p1ulv10803 conn=wye bus1=p1ulv10803.1.2 kV=0.2080002494301389 Vminpu=0.8 Vmaxpu=1.2 model=1 kW=6.060060000000001 kvar=1.2305476669617041 Phases=2

New Load.load_p1ulv12935 conn=wye bus1=p1ulv12935.1.2.3 kV=0.48 Vminpu=0.8 Vmaxpu=1.2 model=1 kW=28.6403 kvar=5.815660958156074 Phases=3

New Load.load_p1ulv12985 conn=wye bus1=p1ulv12985.1.2 kV=0.2080002494301389 Vminpu=0.8 Vmaxpu=1.2 model=1 kW=4.54005 kvar=0.9195182361353397 Phases=2

New Load.load_p1ulv13140 conn=wye bus1=p1ulv13140.1.2 kV=0.2080002494301389 Vminpu=0.8 Vmaxpu=1.2 model=1 kW=4.03004 kvar=0.8204408116683792 Phases=2

New Load.load_p1ulv13232 conn=wye bus1=p1ulv13232.1.2 kV=0.2080002494301389 Vminpu=0.8 Vmaxpu=1.2 model=1 kW=4.08004 kvar=0.8306198770333432 Phases=2

New Load.load_p1ulv13239 conn=wye bus1=p1ulv13239.1.2 kV=0.2080002494301389 Vminpu=0.8 Vmaxpu=1.2 model=1 kW=5.39005 kvar=1.088842888327837 Phases=2

New Load.load_p1ulv13274 conn=wye bus1=p1ulv13274.1.2 kV=0.2080002494301389 Vminpu=0.8 Vmaxpu=1.2 model=1 kW=2.90003 kvar=0.5903918986071232 Phases=2

New Load.load_p1ulv13314 conn=wye bus1=p1ulv13314.1.2 kV=0.2080002494301389 Vminpu=0.8 Vmaxpu=1.2 model=1 kW=3.16003 kvar=0.6400161257551694 Phases=2

New Load.load_p1ulv13321 conn=wye bus1=p1ulv13321.1.2 kV=0.2080002494301389 Vminpu=0.8 Vmaxpu=1.2 model=1 kW=13.5001 kvar=2.741312224425122 Phases=2

New Load.load_p1ulv13365 conn=wye bus1=p1ulv13365.1.2 kV=0.2080002494301389 Vminpu=0.8 Vmaxpu=1.2 model=1 kW=3.16003 kvar=0.6400161257551694 Phases=2

New Load.load_p1ulv13367 conn=wye bus1=p1ulv13367.1.2.3 kV=0.48 Vminpu=0.8 Vmaxpu=1.2 model=1 kW=66.5707 kvar=13.517757179468106 Phases=3

New Load.load_p1ulv13408 conn=wye bus1=p1ulv13408.1.2 kV=0.2080002494301389 Vminpu=0.8 Vmaxpu=1.2 model=1 kW=3.67004 kvar=0.7394527047982206 Phases=2

New Load.load_p1ulv13458 conn=wye bus1=p1ulv13458.1.2 kV=0.2080002494301389 Vminpu=0.8 Vmaxpu=1.2 model=1 kW=3.02003 kvar=0.6100756371530351 Phases=2

New Load.load_p1ulv13568 conn=wye bus1=p1ulv13568.1.2 kV=0.2080002494301389 Vminpu=0.8 Vmaxpu=1.2 model=1 kW=3.89004 kvar=0.789906312212702 Phases=2

New Load.load_p1ulv13571 conn=wye bus1=p1ulv13571.1.2 kV=0.2080002494301389 Vminpu=0.8 Vmaxpu=1.2 model=1 kW=7.99008 kvar=1.6182694613892477 Phases=2

New Load.load_p1ulv13618 conn=wye bus1=p1ulv13618.1.2 kV=0.2080002494301389 Vminpu=0.8 Vmaxpu=1.2 model=1 kW=3.3200300000000005 kvar=0.6706785752516337 Phases=2

New Load.load_p1ulv13619 conn=wye bus1=p1ulv13619.1.2 kV=0.2080002494301389 Vminpu=0.8 Vmaxpu=1.2 model=1 kW=2.89003 kvar=0.5898631429656088 Phases=2

New Load.load_p1ulv13709 conn=wye bus1=p1ulv13709.1.2 kV=0.2080002494301389 Vminpu=0.8 Vmaxpu=1.2 model=1 kW=3.43003 kvar=0.70007864149034 Phases=2

New Load.load_p1ulv13877 conn=wye bus1=p1ulv13877.1.2 kV=0.2080002494301389 Vminpu=0.8 Vmaxpu=1.2 model=1 kW=3.76004 kvar=0.7595649045608481 Phases=2

New Load.load_p1ulv13884 conn=wye bus1=p1ulv13884.1.2 kV=0.2080002494301389 Vminpu=0.8 Vmaxpu=1.2 model=1 kW=8.85009 kvar=1.8017128919162608 Phases=2

New Load.load_p1ulv13973 conn=wye bus1=p1ulv13973.1.2 kV=0.2080002494301389 Vminpu=0.8 Vmaxpu=1.2 model=1 kW=1.75002 kvar=0.3599094544450253 Phases=2

New Load.load_p1ulv13976 conn=wye bus1=p1ulv13976.1.2 kV=0.2080002494301389 Vminpu=0.8 Vmaxpu=1.2 model=1 kW=3.42003 kvar=0.6908795546178332 Phases=2

New Load.load_p1ulv13978 conn=wye bus1=p1ulv13978.1.2 kV=0.2080002494301389 Vminpu=0.8 Vmaxpu=1.2 model=1 kW=3.44003 kvar=0.7003258045487328 Phases=2

New Load.load_p1ulv14027 conn=wye bus1=p1ulv14027.1.2 kV=0.2080002494301389 Vminpu=0.8 Vmaxpu=1.2 model=1 kW=3.22003 kvar=0.6504775958854341 Phases=2

New Load.load_p1ulv14029 conn=wye bus1=p1ulv14029.1.2.3 kV=0.48 Vminpu=0.8 Vmaxpu=1.2 model=1 kW=129.991 kvar=26.395798354474856 Phases=3

New Load.load_p1ulv14030 conn=wye bus1=p1ulv14030.1.2 kV=0.2080002494301389 Vminpu=0.8 Vmaxpu=1.2 model=1 kW=4.75005 kvar=0.95955662038416 Phases=2

New Load.load_p1ulv14113 conn=wye bus1=p1ulv14113.1.2 kV=0.2080002494301389 Vminpu=0.8 Vmaxpu=1.2 model=1 kW=3.0500300000000005 kvar=0.6193350066935321 Phases=2

New Load.load_p1ulv14158 conn=wye bus1=p1ulv14158.1.2 kV=0.2080002494301389 Vminpu=0.8 Vmaxpu=1.2 model=1 kW=3.12003 kvar=0.6302766165192346 Phases=2

New Load.load_p1ulv14160 conn=wye bus1=p1ulv14160.1.2 kV=0.2080002494301389 Vminpu=0.8 Vmaxpu=1.2 model=1 kW=3.51004 kvar=0.7109053401536299 Phases=2

New Load.load_p1ulv14241 conn=wye bus1=p1ulv14241.1.2 kV=0.2080002494301389 Vminpu=0.8 Vmaxpu=1.2 model=1 kW=4.64005 kvar=0.9397717187211114 Phases=2

New Load.load_p1ulv14242 conn=wye bus1=p1ulv14242.1.2 kV=0.2080002494301389 Vminpu=0.8 Vmaxpu=1.2 model=1 kW=3.29003 kvar=0.6697886084538411 Phases=2

New Load.load_p1ulv14244 conn=wye bus1=p1ulv14244.1.2 kV=0.2080002494301389 Vminpu=0.8 Vmaxpu=1.2 model=1 kW=3.27003 kvar=0.660578085568534 Phases=2

New Load.load_p1ulv14245 conn=wye bus1=p1ulv14245.1.2 kV=0.2080002494301389 Vminpu=0.8 Vmaxpu=1.2 model=1 kW=3.19003 kvar=0.6494304777239135 Phases=2

New Load.load_p1ulv14246 conn=wye bus1=p1ulv14246.1.2 kV=0.2080002494301389 Vminpu=0.8 Vmaxpu=1.2 model=1 kW=3.80004 kvar=0.7696404396523686 Phases=2

New Load.load_p1ulv14247 conn=wye bus1=p1ulv14247.1.2 kV=0.2080002494301389 Vminpu=0.8 Vmaxpu=1.2 model=1 kW=3.10003 kvar=0.6294879397252322 Phases=2

New Load.load_p1ulv14248 conn=wye bus1=p1ulv14248.1.2 kV=0.2080002494301389 Vminpu=0.8 Vmaxpu=1.2 model=1 kW=3.67004 kvar=0.749065348529082 Phases=2

New Load.load_p1ulv14249 conn=wye bus1=p1ulv14249.1.2 kV=0.2080002494301389 Vminpu=0.8 Vmaxpu=1.2 model=1 kW=3.64004 kvar=0.739141647054201 Phases=2

New Load.load_p1ulv14250 conn=wye bus1=p1ulv14250.1.2 kV=0.2080002494301389 Vminpu=0.8 Vmaxpu=1.2 model=1 kW=4.60005 kvar=0.9292551513348608 Phases=2

New Load.load_p1ulv14251 conn=wye bus1=p1ulv14251.1.2 kV=0.2080002494301389 Vminpu=0.8 Vmaxpu=1.2 model=1 kW=3.45003 kvar=0.7005584709471337 Phases=2

New Load.load_p1ulv14252 conn=wye bus1=p1ulv14252.1.2 kV=0.2080002494301389 Vminpu=0.8 Vmaxpu=1.2 model=1 kW=4.72005 kvar=0.9609139495179535 Phases=2

New Load.load_p1ulv14253 conn=wye bus1=p1ulv14253.1.2 kV=0.2080002494301389 Vminpu=0.8 Vmaxpu=1.2 model=1 kW=3.0700300000000005 kvar=0.620176126836135 Phases=2

New Load.load_p1ulv14255 conn=wye bus1=p1ulv14255.1.2 kV=0.2080002494301389 Vminpu=0.8 Vmaxpu=1.2 model=1 kW=3.6900400000000007 kvar=0.7492945800859013 Phases=2

New Load.load_p1ulv14256 conn=wye bus1=p1ulv14256.1.2 kV=0.2080002494301389 Vminpu=0.8 Vmaxpu=1.2 model=1 kW=3.89004 kvar=0.789906312212702 Phases=2

New Load.load_p1ulv14258 conn=wye bus1=p1ulv14258.1.2 kV=0.2080002494301389 Vminpu=0.8 Vmaxpu=1.2 model=1 kW=4.15004 kvar=0.8405276287025704 Phases=2

New Load.load_p1ulv14259 conn=wye bus1=p1ulv14259.1.2 kV=0.2080002494301389 Vminpu=0.8 Vmaxpu=1.2 model=1 kW=3.23003 kvar=0.6592580864811803 Phases=2

New Load.load_p1ulv14260 conn=wye bus1=p1ulv14260.1.2 kV=0.2080002494301389 Vminpu=0.8 Vmaxpu=1.2 model=1 kW=3.2600300000000004 kvar=0.6602696083409414 Phases=2

New Load.load_p1ulv14261 conn=wye bus1=p1ulv14261.1.2 kV=0.2080002494301389 Vminpu=0.8 Vmaxpu=1.2 model=1 kW=3.60004 kvar=0.7291334744808246 Phases=2

New Load.load_p1ulv14262 conn=wye bus1=p1ulv14262.1.2 kV=0.2080002494301389 Vminpu=0.8 Vmaxpu=1.2 model=1 kW=3.0100300000000004 kvar=0.6096359018765115 Phases=2

New Load.load_p1ulv14264 conn=wye bus1=p1ulv14264.1.2 kV=0.2080002494301389 Vminpu=0.8 Vmaxpu=1.2 model=1 kW=3.7300400000000002 kvar=0.7593664194785962 Phases=2

New Load.load_p1ulv14265 conn=wye bus1=p1ulv14265.1.2 kV=0.2080002494301389 Vminpu=0.8 Vmaxpu=1.2 model=1 kW=4.03004 kvar=0.8204408116683792 Phases=2

New Load.load_p1ulv14266 conn=wye bus1=p1ulv14266.1.2 kV=0.2080002494301389 Vminpu=0.8 Vmaxpu=1.2 model=1 kW=3.45003 kvar=0.7005584709471337 Phases=2

New Load.load_p1ulv14269 conn=wye bus1=p1ulv14269.1.2 kV=0.2080002494301389 Vminpu=0.8 Vmaxpu=1.2 model=1 kW=4.13004 kvar=0.840798942398307 Phases=2

New Load.load_p1ulv14270 conn=wye bus1=p1ulv14270.1.2 kV=0.2080002494301389 Vminpu=0.8 Vmaxpu=1.2 model=1 kW=3.87004 kvar=0.7898859035382418 Phases=2

New Load.load_p1ulv14272 conn=wye bus1=p1ulv14272.1.2 kV=0.2080002494301389 Vminpu=0.8 Vmaxpu=1.2 model=1 kW=3.83004 kvar=0.7797245502085238 Phases=2

New Load.load_p1ulv14273 conn=wye bus1=p1ulv14273.1.2 kV=0.2080002494301389 Vminpu=0.8 Vmaxpu=1.2 model=1 kW=3.13003 kvar=0.6404763570309296 Phases=2

New Load.load_p1ulv14275 conn=wye bus1=p1ulv14275.1.2 kV=0.2080002494301389 Vminpu=0.8 Vmaxpu=1.2 model=1 kW=3.25003 kvar=0.659946738820333 Phases=2

New Load.load_p1ulv14276 conn=wye bus1=p1ulv14276.1.2 kV=0.2080002494301389 Vminpu=0.8 Vmaxpu=1.2 model=1 kW=2.99003 kvar=0.6102734204701886 Phases=2

New Load.load_p1ulv14278 conn=wye bus1=p1ulv14278.1.2 kV=0.2080002494301389 Vminpu=0.8 Vmaxpu=1.2 model=1 kW=3.0300300000000004 kvar=0.6105012150057635 Phases=2

New Load.load_p1ulv14279 conn=wye bus1=p1ulv14279.1.2 kV=0.2080002494301389 Vminpu=0.8 Vmaxpu=1.2 model=1 kW=3.79004 kvar=0.7696004461493017 Phases=2

New Load.load_p1ulv14280 conn=wye bus1=p1ulv14280.1.2 kV=0.2080002494301389 Vminpu=0.8 Vmaxpu=1.2 model=1 kW=3.35003 kvar=0.6802526048837334 Phases=2

New Load.load_p1ulv14281 conn=wye bus1=p1ulv14281.1.2 kV=0.2080002494301389 Vminpu=0.8 Vmaxpu=1.2 model=1 kW=3.51004 kvar=0.7109053401536299 Phases=2

New Load.load_p1ulv14282 conn=wye bus1=p1ulv14282.1.2 kV=0.2080002494301389 Vminpu=0.8 Vmaxpu=1.2 model=1 kW=3.47003 kvar=0.6991539790386396 Phases=2

New Load.load_p1ulv14283 conn=wye bus1=p1ulv14283.1.2 kV=0.2080002494301389 Vminpu=0.8 Vmaxpu=1.2 model=1 kW=3.39003 kvar=0.6901467391837689 Phases=2

New Load.load_p1ulv14284 conn=wye bus1=p1ulv14284.1.2 kV=0.2080002494301389 Vminpu=0.8 Vmaxpu=1.2 model=1 kW=3.15003 kvar=0.6396408727569326 Phases=2

New Load.load_p1ulv14285 conn=wye bus1=p1ulv14285.1.2 kV=0.2080002494301389 Vminpu=0.8 Vmaxpu=1.2 model=1 kW=4.23004 kvar=0.8589462568282636 Phases=2

New Load.load_p1ulv14286 conn=wye bus1=p1ulv14286.1.2 kV=0.2080002494301389 Vminpu=0.8 Vmaxpu=1.2 model=1 kW=3.2600300000000004 kvar=0.6602696083409414 Phases=2

New Load.load_p1ulv14288 conn=wye bus1=p1ulv14288.1.2 kV=0.2080002494301389 Vminpu=0.8 Vmaxpu=1.2 model=1 kW=3.7100400000000002 kvar=0.7494644148777485 Phases=2

New Load.load_p1ulv14289 conn=wye bus1=p1ulv14289.1.2 kV=0.2080002494301389 Vminpu=0.8 Vmaxpu=1.2 model=1 kW=2.18002 kvar=0.44038539037902263 Phases=2

New Load.load_p1ulv14290 conn=wye bus1=p1ulv14290.1.2 kV=0.2080002494301389 Vminpu=0.8 Vmaxpu=1.2 model=1 kW=4.46004 kvar=0.910306540815263 Phases=2

New Load.load_p1ulv14291 conn=wye bus1=p1ulv14291.1.2 kV=0.2080002494301389 Vminpu=0.8 Vmaxpu=1.2 model=1 kW=2.79003 kvar=0.569452865461029 Phases=2

New Load.load_p1ulv14292 conn=wye bus1=p1ulv14292.1.2 kV=0.2080002494301389 Vminpu=0.8 Vmaxpu=1.2 model=1 kW=3.20003 kvar=0.6497938057886328 Phases=2

New Load.load_p1ulv14293 conn=wye bus1=p1ulv14293.1.2 kV=0.2080002494301389 Vminpu=0.8 Vmaxpu=1.2 model=1 kW=2.46002 kvar=0.49952836633286324 Phases=2

New Load.load_p1ulv14295 conn=wye bus1=p1ulv14295.1.2 kV=0.2080002494301389 Vminpu=0.8 Vmaxpu=1.2 model=1 kW=3.54004 kvar=0.7206859710917335 Phases=2

New Load.load_p1ulv14296 conn=wye bus1=p1ulv14296.1.2 kV=0.2080002494301389 Vminpu=0.8 Vmaxpu=1.2 model=1 kW=3.2600300000000004 kvar=0.6602696083409414 Phases=2

New Load.load_p1ulv14297 conn=wye bus1=p1ulv14297.1.2.3 kV=0.48 Vminpu=0.8 Vmaxpu=1.2 model=1 kW=97.661 kvar=19.830911856177494 Phases=3

New Load.load_p1ulv14298 conn=wye bus1=p1ulv14298.1.2 kV=0.2080002494301389 Vminpu=0.8 Vmaxpu=1.2 model=1 kW=2.60003 kvar=0.5306733382023273 Phases=2

New Load.load_p1ulv14302 conn=wye bus1=p1ulv14302.1.2 kV=0.2080002494301389 Vminpu=0.8 Vmaxpu=1.2 model=1 kW=2.91003 kvar=0.5893824192907394 Phases=2

New Load.load_p1ulv14304 conn=wye bus1=p1ulv14304.1.2 kV=0.2080002494301389 Vminpu=0.8 Vmaxpu=1.2 model=1 kW=9.34009 kvar=1.9014677324929066 Phases=2

New Load.load_p1ulv14305 conn=wye bus1=p1ulv14305.1.2.3 kV=0.48 Vminpu=0.8 Vmaxpu=1.2 model=1 kW=26.0003 kvar=5.279586094082302 Phases=3

New Load.load_p1ulv14306 conn=wye bus1=p1ulv14306.1.2 kV=0.2080002494301389 Vminpu=0.8 Vmaxpu=1.2 model=1 kW=8.14008 kvar=1.6486496852679053 Phases=2

New Load.load_p1ulv14307 conn=wye bus1=p1ulv14307.1.2.3 kV=0.48 Vminpu=0.8 Vmaxpu=1.2 model=1 kW=47.2005 kvar=9.584470311255322 Phases=3

New Load.load_p1ulv14309 conn=wye bus1=p1ulv14309.1.2 kV=0.2080002494301389 Vminpu=0.8 Vmaxpu=1.2 model=1 kW=1.7300200000000001 kvar=0.350389299430372 Phases=2

New Load.load_p1ulv14802 conn=wye bus1=p1ulv14802.1.2 kV=0.2080002494301389 Vminpu=0.8 Vmaxpu=1.2 model=1 kW=3.57004 kvar=0.7305125553603958 Phases=2

New Load.load_p1ulv14810 conn=wye bus1=p1ulv14810.1.2 kV=0.2080002494301389 Vminpu=0.8 Vmaxpu=1.2 model=1 kW=9.680100000000001 kvar=1.9706874127877338 Phases=2

New Load.load_p1ulv14847 conn=wye bus1=p1ulv14847.1.2 kV=0.2080002494301389 Vminpu=0.8 Vmaxpu=1.2 model=1 kW=3.2800300000000004 kvar=0.6694632252334703 Phases=2

New Load.load_p1ulv14848 conn=wye bus1=p1ulv14848.1.2 kV=0.2080002494301389 Vminpu=0.8 Vmaxpu=1.2 model=1 kW=5.65006 kvar=1.1502466011193542 Phases=2

New Load.load_p1ulv14941 conn=wye bus1=p1ulv14941.1.2 kV=0.2080002494301389 Vminpu=0.8 Vmaxpu=1.2 model=1 kW=4.79005 kvar=0.9701519425997696 Phases=2

New Load.load_p1ulv14951 conn=wye bus1=p1ulv14951.1.2 kV=0.2080002494301389 Vminpu=0.8 Vmaxpu=1.2 model=1 kW=5.73006 kvar=1.1605367042542845 Phases=2

New Load.load_p1ulv14987 conn=wye bus1=p1ulv14987.1.2 kV=0.2080002494301389 Vminpu=0.8 Vmaxpu=1.2 model=1 kW=3.86004 kvar=0.7797658839270477 Phases=2

New Load.load_p1ulv15048 conn=wye bus1=p1ulv15048.1.2 kV=0.2080002494301389 Vminpu=0.8 Vmaxpu=1.2 model=1 kW=5.28005 kvar=1.069394007270052 Phases=2

New Load.load_p1ulv15085 conn=wye bus1=p1ulv15085.1.2 kV=0.2080002494301389 Vminpu=0.8 Vmaxpu=1.2 model=1 kW=3.41003 kvar=0.6906498322195993 Phases=2

New Load.load_p1ulv15087 conn=wye bus1=p1ulv15087.1.2 kV=0.2080002494301389 Vminpu=0.8 Vmaxpu=1.2 model=1 kW=3.62004 kvar=0.7407437090079797 Phases=2

New Load.load_p1ulv15129 conn=wye bus1=p1ulv15129.1.2 kV=0.2080002494301389 Vminpu=0.8 Vmaxpu=1.2 model=1 kW=3.55004 kvar=0.7208663675971405 Phases=2

New Load.load_p1ulv15175 conn=wye bus1=p1ulv15175.1.2 kV=0.2080002494301389 Vminpu=0.8 Vmaxpu=1.2 model=1 kW=3.27003 kvar=0.660578085568534 Phases=2

New Load.load_p1ulv15176 conn=wye bus1=p1ulv15176.1.2 kV=0.2080002494301389 Vminpu=0.8 Vmaxpu=1.2 model=1 kW=3.48003 kvar=0.71028378024263 Phases=2

...